Version 4.1
SHEET 1 1708 680
WIRE 720 -48 560 -48
WIRE 848 -48 720 -48
WIRE 960 -48 848 -48
WIRE 1136 -48 960 -48
WIRE 960 -32 960 -48
WIRE 560 -16 560 -48
WIRE 720 -16 720 -48
WIRE 848 -16 848 -48
WIRE 560 80 560 48
WIRE 560 80 -416 80
WIRE 960 80 960 48
WIRE 1136 80 1136 -48
WIRE 720 96 720 48
WIRE 720 96 -112 96
WIRE 848 112 848 48
WIRE 848 112 240 112
WIRE -416 160 -416 80
WIRE -112 160 -112 96
WIRE 240 160 240 112
WIRE 560 208 560 80
WIRE 720 208 720 96
WIRE 848 208 848 112
WIRE 560 288 560 272
WIRE 720 288 720 272
WIRE 720 288 560 288
WIRE 848 288 848 272
WIRE 848 288 720 288
WIRE 960 288 960 144
WIRE 960 288 848 288
WIRE 1024 288 960 288
WIRE 1136 288 1136 160
WIRE 1136 288 1024 288
WIRE -416 336 -416 240
WIRE -128 336 -416 336
WIRE -112 336 -112 240
WIRE -112 336 -128 336
WIRE 240 336 240 240
WIRE 240 336 -112 336
WIRE 1024 352 1024 288
WIRE -128 384 -128 336
FLAG -128 384 0
FLAG 1024 352 0
SYMBOL voltage -416 144 R0
WINDOW 123 0 0 Left 0
WINDOW 39 24 124 Left 2
SYMATTR SpiceLine Rser=0
SYMATTR InstName V1
SYMATTR Value SINE(0 120 60 0 0 0)
SYMBOL voltage -112 144 R0
WINDOW 123 24 124 Left 2
WINDOW 39 24 152 Left 2
SYMATTR SpiceLine Rser=0
SYMATTR InstName V2
SYMATTR Value SINE(0 120 60 0 0 -120)
SYMBOL voltage 240 144 R0
WINDOW 123 0 0 Left 0
WINDOW 39 24 124 Left 2
SYMATTR SpiceLine Rser=0
SYMATTR InstName V3
SYMATTR Value SINE(0 120 60 0 0 120)
SYMBOL diode 576 48 R180
WINDOW 0 24 64 Left 2
WINDOW 3 24 0 Left 2
SYMATTR InstName D1
SYMATTR Value MUR460
SYMBOL diode 576 272 R180
WINDOW 0 24 64 Left 2
WINDOW 3 24 0 Left 2
SYMATTR InstName D2
SYMATTR Value MUR460
SYMBOL diode 736 48 R180
WINDOW 0 24 64 Left 2
WINDOW 3 24 0 Left 2
SYMATTR InstName D3
SYMATTR Value MUR460
SYMBOL diode 736 272 R180
WINDOW 0 24 64 Left 2
WINDOW 3 24 0 Left 2
SYMATTR InstName D4
SYMATTR Value MUR460
SYMBOL diode 864 272 R180
WINDOW 0 24 64 Left 2
WINDOW 3 24 0 Left 2
SYMATTR InstName D5
SYMATTR Value MUR460
SYMBOL diode 864 48 R180
WINDOW 0 24 64 Left 2
WINDOW 3 24 0 Left 2
SYMATTR InstName D6
SYMATTR Value MUR460
SYMBOL cap 944 80 R0
SYMATTR InstName C1
SYMATTR Value 2200
SYMATTR SpiceLine V=250
SYMBOL res 1120 64 R0
SYMATTR InstName R1
SYMATTR Value 18000
SYMATTR SpiceLine tol=5 pwr=5
SYMBOL res 944 -48 R0
SYMATTR InstName R2
SYMATTR Value 100
SYMATTR SpiceLine tol=5 pwr=10
TEXT 0 376 Left 2 !.tran 0 100ms 0 10u
TEXT 352 64 Left 2 ;In
TEXT 128 -104 Left 2 ;Components\n1 capacitor 2200uf - 250V\n1 resistor 18k ohm - 5w\n6 diodes MUR460 \n1 resistor 100 ohm - 10w
