Version 4.1
SHEET 1 2020 680
WIRE -192 -416 -352 -416
WIRE 16 -416 -112 -416
WIRE 288 -416 208 -416
WIRE 464 -416 368 -416
WIRE -352 -400 -352 -416
WIRE 1440 -384 1184 -384
WIRE 1088 -336 880 -336
WIRE 16 -320 -48 -320
WIRE 272 -320 208 -320
WIRE 880 -304 880 -336
WIRE 1088 -272 1088 -336
WIRE 1184 -272 1184 -384
WIRE -48 -256 -48 -320
WIRE 880 -144 880 -224
WIRE 1088 -144 1088 -192
WIRE 1088 -144 880 -144
WIRE 880 -112 880 -144
WIRE 272 -96 272 -320
WIRE 272 -96 -224 -96
WIRE -224 -48 -400 -48
WIRE 528 -48 528 -416
WIRE 528 -48 -160 -48
WIRE 1440 -48 1440 -384
WIRE 1440 -48 528 -48
WIRE -400 -16 -400 -48
WIRE 976 64 -400 64
WIRE 1184 64 1184 -192
WIRE 1184 64 976 64
WIRE 112 128 -32 128
WIRE 208 128 192 128
WIRE 528 128 528 -48
WIRE 624 128 528 128
WIRE 624 144 624 128
WIRE -32 176 -32 128
WIRE 208 240 208 128
WIRE 224 240 208 240
WIRE 624 240 624 224
WIRE 624 240 416 240
WIRE 224 336 144 336
WIRE 624 336 624 304
WIRE 624 336 416 336
WIRE 976 336 976 64
WIRE 976 336 624 336
WIRE 144 368 144 336
WIRE 160 368 144 368
FLAG 880 -112 0
FLAG -48 -256 0
FLAG -352 -320 0
FLAG 160 368 0
FLAG -32 256 0
SYMBOL voltage 880 -320 R0
WINDOW 3 24 152 Left 2
WINDOW 123 24 124 Left 2
WINDOW 39 0 0 Left 0
SYMATTR Value SINE(0 169 60)
SYMATTR InstName V2
SYMBOL ind 1072 -288 R0
SYMATTR InstName Lp
SYMATTR Value 1
SYMATTR Type ind
SYMATTR SpiceLine Rser=0.01
SYMBOL ind 1200 -176 R180
WINDOW 0 36 80 Left 2
WINDOW 3 36 40 Left 2
SYMATTR InstName Ls
SYMATTR Value 10m
SYMATTR Type ind
SYMBOL Misc\\SCR -160 -64 R90
SYMATTR InstName U2
SYMATTR Value MCR100-003
SYMBOL Optos\\PC817A 112 -368 R0
SYMATTR InstName U1
SYMBOL Optos\\PC817A 320 288 M0
SYMATTR InstName U3
SYMBOL res -416 -32 R0
SYMATTR InstName R1
SYMATTR Value 5.56
SYMATTR SpiceLine tol=5 pwr=21
SYMBOL res -208 -400 R270
WINDOW 0 32 56 VTop 2
WINDOW 3 0 56 VBottom 2
SYMATTR InstName R2
SYMATTR Value 220
SYMBOL voltage -352 -416 R0
WINDOW 123 0 0 Left 0
WINDOW 39 0 0 Left 0
SYMATTR InstName V1
SYMATTR Value 5
SYMBOL res 384 -432 R90
WINDOW 0 0 56 VBottom 2
WINDOW 3 32 56 VTop 2
SYMATTR InstName R3
SYMATTR Value 1k
SYMBOL diode 528 -432 R90
WINDOW 0 0 32 VBottom 2
WINDOW 3 32 32 VTop 2
SYMATTR InstName D1
SYMATTR Value 1N4007
SYMBOL diode 640 304 R180
WINDOW 0 24 64 Left 2
WINDOW 3 24 0 Left 2
SYMATTR InstName D2
SYMATTR Value 1N4007
SYMBOL voltage -32 160 R0
WINDOW 123 0 0 Left 0
WINDOW 39 0 0 Left 0
SYMATTR InstName V3
SYMATTR Value 5
SYMBOL res 208 112 R90
WINDOW 0 0 56 VBottom 2
WINDOW 3 32 56 VTop 2
SYMATTR InstName R4
SYMATTR Value 10k
SYMBOL res 608 128 R0
SYMATTR InstName R5
SYMATTR Value 1k
TEXT -1616 -528 Left 2 !.model D6A10 D(IS=2e-8 RS=0.016 N=1.9 BV=1000 IBV=10u CJO=150p M=0.5 TT=2u)
TEXT 848 -24 Left 2 !.tran 0 200m 0 10u
TEXT 352 -192 Left 2 !K1 Lp Ls 1
TEXT -1608 -480 Left 2 !.inc C:\\Users\\lenov\\Videos\\tiristor\\MCR100.txt
